artifacts/measurements/out_measurements_parameter_topology_physical_preview/models_topology/case_topology_corrected_pt_936062325119.m
function mpc = case_topology_corrected_pt_936062325119
mpc.version = '2';
mpc.baseMVA = 100;

mpc.bus = [
    1 3 0 0 0 0 1 1.06 0 135 1 2 0 0 0 0 0 0;
    2 2 21.7 12.7 0 0 1 1.045 -3.17091891176 135 1 2 0 0 0 0 0 0;
    3 1 0 0 0 0 1 1.00264865016 -16.9717945377 135 1 2 0 0 0 0 0 0;
    4 2 94.2 19 0 0 1 1.01 -15.9559243434 135 1 2 0 0 0 0 0 0;
    5 1 47.8 -3.9 0 0 1 0.999572342353 -17.7852368564 135 1 2 0 0 0 0 0 0;
    6 1 7.6 1.6 0 0 1 0.999901332548 -16.0577893544 135 1 2 0 0 0 0 0 0;
    7 2 11.2 7.5 0 0 1 1.07 -21.7362920618 0.208 1 2 0 0 0 0 0 0;
    8 1 0 0 0 0 1 1.05324810673 -20.8485685844 14 1 2 0 0 0 0 0 0;
    9 2 0 0 0 0 1 1.09 -20.8485685844 12 1 2 0 0 0 0 0 0;
    10 1 29.5 16.6 0 19 1 1.04786605496 -22.4198274378 0.208 1 2 0 0 0 0 0 0;
    11 1 9 5.8 0 0 1 1.04428302064 -22.5832130207 0.208 1 2 0 0 0 0 0 0;
    12 1 3.5 1.8 0 0 1 1.05346360543 -22.2866867367 0.208 1 2 0 0 0 0 0 0;
    13 1 6.1 1.6 0 0 1 1.05458769429 -22.5946091633 0.208 1 2 0 0 0 0 0 0;
    14 1 13.5 5.8 0 0 1 1.0491793654 -22.6657920951 0.208 1 2 0 0 0 0 0 0;
    15 1 14.9 5 0 0 1 1.03036089727 -23.5358944734 0.208 1 2 0 0 0 0 0 0;
];

mpc.gen = [
    1 237.253323916 4.91106614474 0 0 1.06 1 1 1000000000 -1000000000 0 0 0 0 0 0 0 0 0 0 0 0 0 0 0 1;
    2 40 20.2124961615 1000000000 -1000000000 1.045 nan 1 1000000000 -1000000000 0 0 0 0 0 0 0 0 0 0 0 0 0 0 0 0;
    4 0 37.431044817 2000000000 -2000000000 1.01 nan 1 2000000000 -2000000000 0 0 0 0 0 0 0 0 0 0 0 0 0 0 0 0;
    7 0 24.4120125771 1000000000 -1000000000 1.07 nan 1 1000000000 -1000000000 0 0 0 0 0 0 0 0 0 0 0 0 0 0 0 0;
    9 0 22.741733551 1000000000 -1000000000 1.09 nan 1 1000000000 -1000000000 0 0 0 0 0 0 0 0 0 0 0 0 0 0 0 0;
];

mpc.branch = [
    1 2 0.01938 0.05917 0.0528 100 0 0 0 0 1 -360 360 102.316607988 -6.74023487594 -100.508498346 6.41141044447 0 0 0 0 0;
    1 6 0.05403 0.22304 0.0492 100 0 0 0 0 1 -360 360 134.936715928 11.6513010207 -126.081239405 19.6812173047 0 0 0 0 0;
    2 4 0.04699 0.19797 0.0438 100 0 0 0 0 1 -360 360 118.808498346 1.10108565097 -112.729345998 19.8849756281 0 0 0 0 0;
    3 5 0.05811 0.17632 0.034 100 0 0 0 0 1 -360 360 7.81603930323 -2.47832407091 -7.78038483935 -0.821055147753 0 0 0 0 0;
    3 6 0.05695 0.17388 0.0346 100 0 0 0 0 1 -360 360 -7.81603930323 2.47832407091 7.8607231822 -5.8107301412 0 0 0 0 0;
    4 5 0.06701 0.17103 0.0128 100 0 0 0 0 1 -360 360 18.5293459985 -1.45393052805 -18.303387851 0.738328063775 0 0 0 0 0;
    5 6 0.01335 0.04211 0 100 0 0 0 0 1 -360 360 -64.9287171285 20.8818836998 65.5502627809 -18.9213378256 0 0 0 0 0;
    5 8 0 0.20912 -0 100 0 0 0.978 0 1 -360 360 27.5090100928 -14.5085479989 -27.5090100928 16.4448838362 0 0 0 0 0;
    5 10 0 0.55618 -0 100 0 0 0.969 0 1 -360 360 15.7034797262 -2.39060861693 -15.7034797262 3.70940060283 0 0 0 0 0;
    6 7 0 0.25202 -0 100 0 0 0.932 0 1 -360 360 45.0702534423 3.45085066227 -45.0702534423 1.02289297859 0 0 0 0 0;
    7 12 0.09498 0.1989 0 100 0 0 0 0 1 -360 360 7.90244750344 5.14841926386 -7.82865122288 -4.99388062201 0 0 0 0 0;
    7 13 0.12291 0.25581 0 100 0 0 0 0 1 -360 360 7.90429412554 2.69833560066 -7.82940492981 -2.54247029141 0 0 0 0 0;
    7 14 0.06615 0.13027 0 100 0 0 0 0 1 -360 360 18.0635118133 8.04236490451 -17.8376172234 -7.59750793951 0 0 0 0 0;
    8 9 0 0.17615 -0 100 0 0 0 0 1 -360 360 5.58865528443e-14 -21.9749429474 -5.55219039025e-14 22.741733557 0 0 0 0 0;
    8 10 0 0.11001 -0 100 0 0 0 0 1 -360 360 27.5090100928 5.53005911128 -27.5090100928 -4.74928385722 0 0 0 0 0;
    10 11 0.03181 0.0845 0 100 0 0 0 0 1 -360 360 4.70122529251 2.67873303242 -4.69274363708 -2.65620238533 0 0 0 0 0;
    10 15 0.12711 0.27038 0 100 0 0 0 0 1 -360 360 9.01126452657 2.62359233559 -8.90929376076 -2.40668685483 0 0 0 0 0;
    11 12 0.08205 0.19207 0 100 0 0 0 0 1 -360 360 -4.30725636292 -3.14379761467 4.32865122288 3.19388062201 0 0 0 0 0;
    13 14 0.22092 0.19988 0 100 0 0 0 0 1 -360 360 1.72940492981 0.942470291414 -1.72169945016 -0.935498666969 0 0 0 0 0;
    14 15 0.17093 0.34802 0 100 0 0 0 0 1 -360 360 6.05931667353 2.73300660648 -5.99070623924 -2.59331314517 0 0 0 0 0;
];

